[General]
repeat = 2
network = Network1
sim-time-limit = 10s
**.par1 = ${itervar1 = 2, 3, 5}
